Version 4
SHEET 1 2216 892
WIRE 1168 32 544 32
WIRE 1872 32 1168 32
WIRE 1776 80 1088 80
WIRE 544 96 544 32
WIRE 1168 96 1168 32
WIRE 1872 96 1872 32
WIRE 544 144 464 144
WIRE 672 144 592 144
WIRE 1088 144 1088 80
WIRE 1088 144 672 144
WIRE 1120 144 1088 144
WIRE 1248 144 1168 144
WIRE 1776 144 1776 80
WIRE 1824 144 1776 144
WIRE 1952 144 1872 144
WIRE 1168 256 1168 192
WIRE 1168 256 896 256
WIRE 1440 256 1168 256
WIRE 544 320 544 192
WIRE 672 320 672 144
WIRE 672 320 544 320
WIRE 896 320 896 256
WIRE 1440 320 1440 256
WIRE 848 368 784 368
WIRE 976 368 896 368
WIRE 1440 368 1360 368
WIRE 1552 368 1488 368
WIRE 1872 448 1872 192
WIRE 1920 448 1872 448
WIRE 544 528 544 320
WIRE 1440 528 1440 416
WIRE 1632 528 1440 528
WIRE 1664 528 1632 528
WIRE 1776 528 1744 528
WIRE 1872 528 1872 448
WIRE 1872 528 1840 528
WIRE 896 592 896 416
WIRE 1008 592 896 592
WIRE 896 640 896 592
WIRE 1440 640 1440 528
WIRE 1872 640 1872 528
WIRE 896 688 816 688
WIRE 1008 688 1008 592
WIRE 1008 688 944 688
WIRE 1392 688 1008 688
WIRE 1520 688 1440 688
WIRE 1632 688 1632 528
WIRE 1824 688 1632 688
WIRE 1952 688 1872 688
WIRE 544 800 544 608
WIRE 896 800 896 736
WIRE 896 800 544 800
WIRE 1168 800 896 800
WIRE 1440 800 1440 736
WIRE 1440 800 1168 800
WIRE 1872 800 1872 736
WIRE 1872 800 1440 800
FLAG 1168 32 VDD
FLAG 464 144 VDD
FLAG 1248 144 VDD
FLAG 1952 144 VDD
FLAG 1360 368 VDD
FLAG 976 368 VDD
FLAG 1168 800 VSS
FLAG 1520 688 VSS
FLAG 1952 688 VSS
FLAG 816 688 VSS
FLAG 784 368 In-
IOPIN 784 368 In
FLAG 1552 368 In+
IOPIN 1552 368 In
FLAG 1872 32 VDD
IOPIN 1872 32 BiDir
FLAG 1872 800 VSS
IOPIN 1872 800 BiDir
FLAG 1920 448 out
IOPIN 1920 448 Out
DATAFLAG 1872 304 ""
DATAFLAG 944 592 ""
DATAFLAG 1488 528 ""
DATAFLAG 1136 256 ""
DATAFLAG 832 368 ""
DATAFLAG 1536 368 ""
DATAFLAG 848 144 ""
DATAFLAG 544 240 ""
DATAFLAG 1936 448 ""
SYMBOL pmosb 1120 96 R0
WINDOW 0 63 69 Left 2
SYMATTR InstName MBIASIN
SYMATTR Value2 l=450n w=3u ad=1.19p as=1.19p pd=7.33u ps=7.33u
SYMBOL pmosb 848 320 R0
WINDOW 0 63 69 Left 2
SYMATTR InstName MIN1
SYMATTR Value2 l=450n w=6.61u ad=2.38p as=2.38p pd=13.9u ps=13.9u
SYMBOL pmosb 1488 320 M0
WINDOW 0 63 69 Left 2
SYMATTR InstName MIN2
SYMATTR Value2 l=450n w=6.61u ad=2.38p as=2.38p pd=13.9u ps=13.9u
SYMBOL nmosb 1392 640 R0
WINDOW 0 63 4 Left 2
SYMATTR InstName MCM2
SYMATTR Value2 l=450n w=1.43u ad=0.5p as=0.5p pd=3.57u ps=3.57u
SYMBOL nmosb 944 640 M0
WINDOW 0 63 4 Left 2
SYMATTR InstName MCM1
SYMATTR Value2 l=450n w=1.43u ad=0.5p as=0.5p pd=3.57u ps=3.57u
SYMBOL nmosb 1824 640 R0
WINDOW 0 63 4 Left 2
SYMATTR InstName MOUT
SYMATTR Value2 l=180n w=4.28u ad=1.54p as=1.54p pd=9.28u ps=9.28u
SYMBOL pmosb 1824 96 R0
WINDOW 0 63 69 Left 2
SYMATTR InstName MBIASOUT
SYMATTR Value2 l=450n w=9.5u ad=4.46p as=4.46p pd=25.5u ps=25.5u
SYMBOL pmosb 592 96 M0
WINDOW 0 63 69 Left 2
SYMATTR InstName MDIODE
SYMATTR Value2 l=450n w=8.76u ad=3.15p as=3.15p pd=18.2u ps=18.2u
SYMBOL current 544 528 R0
WINDOW 123 0 0 Left 2
WINDOW 39 0 0 Left 2
SYMATTR InstName Iref
SYMATTR Value 10µ
SYMBOL cap 1840 512 R90
WINDOW 0 0 32 VBottom 2
WINDOW 3 32 32 VTop 2
SYMATTR InstName CC
SYMATTR Value 0.5p
SYMBOL res 1760 512 R90
WINDOW 0 0 56 VBottom 2
WINDOW 3 32 56 VTop 2
SYMATTR InstName RC
SYMATTR Value 1k
TEXT 352 208 Left 2 !.op
