Version 4
SHEET 1 2672 1796
WIRE 64 880 -32 880
WIRE 240 880 64 880
WIRE 576 880 240 880
WIRE 736 880 576 880
WIRE 272 928 48 928
WIRE 496 928 352 928
WIRE -576 944 -576 928
WIRE -32 944 -32 880
WIRE 240 976 240 880
WIRE -576 1008 -576 944
WIRE 736 1008 736 880
WIRE 160 1040 112 1040
WIRE -32 1056 -32 1024
WIRE 496 1072 496 928
WIRE 496 1072 320 1072
WIRE 512 1072 496 1072
WIRE 560 1072 512 1072
WIRE 48 1104 48 928
WIRE 160 1104 48 1104
WIRE 736 1136 736 1088
WIRE 736 1136 656 1136
WIRE 576 1152 576 880
WIRE 736 1152 736 1136
WIRE 240 1184 240 1168
WIRE 576 1200 544 1200
WIRE 656 1200 656 1136
WIRE 656 1200 624 1200
WIRE 688 1200 656 1200
WIRE 768 1200 736 1200
WIRE 112 1232 112 1040
WIRE 112 1232 -208 1232
WIRE 272 1232 112 1232
WIRE 496 1232 496 1072
WIRE 496 1232 352 1232
WIRE 544 1264 544 1200
WIRE 576 1264 576 1248
WIRE 576 1264 544 1264
WIRE 736 1264 736 1248
WIRE 768 1264 768 1200
WIRE 768 1264 736 1264
WIRE 48 1296 48 1104
WIRE 496 1312 496 1232
WIRE 576 1312 576 1264
WIRE 576 1312 496 1312
WIRE -208 1424 -208 1232
WIRE -144 1424 -208 1424
WIRE 48 1424 48 1376
WIRE 48 1424 -16 1424
WIRE -208 1440 -208 1424
WIRE 48 1440 48 1424
WIRE -144 1488 -144 1424
WIRE -16 1488 -16 1424
WIRE -208 1568 -208 1536
WIRE 48 1568 48 1536
WIRE 48 1568 -208 1568
WIRE 736 1568 736 1264
WIRE 736 1568 48 1568
WIRE 48 1584 48 1568
FLAG -32 1056 0
FLAG 64 880 Vin
FLAG 48 1584 0
FLAG 512 1072 VBG
FLAG 240 1184 0
FLAG -576 1088 0
FLAG -576 944 -VSS
DATAFLAG 240 880 ""
DATAFLAG 576 880 ""
DATAFLAG 48 1104 ""
DATAFLAG 112 1232 ""
DATAFLAG 48 1424 ""
DATAFLAG -208 1424 ""
DATAFLAG 496 1248 ""
SYMBOL voltage -32 928 R0
WINDOW 123 24 124 Left 2
WINDOW 39 0 0 Left 0
SYMATTR Value2 AC 0
SYMATTR InstName VDD
SYMATTR Value {VDD}
SYMBOL res 64 1280 M0
SYMATTR InstName R3
SYMATTR Value 18k
SYMBOL npn -16 1440 R0
SYMATTR InstName Q5
SYMATTR Value N  10
SYMBOL npn -144 1440 M0
SYMATTR InstName Q6
SYMATTR Value N
SYMBOL res 368 944 M270
WINDOW 0 32 56 VTop 2
WINDOW 3 0 56 VBottom 2
SYMATTR InstName R1
SYMATTR Value 168k
SYMBOL res 368 1248 M270
WINDOW 0 32 56 VTop 2
WINDOW 3 0 56 VBottom 2
SYMATTR InstName R2
SYMATTR Value 168k
SYMBOL nmosb 624 1152 M0
SYMATTR InstName M1
SYMATTR Value2 l=200n w=3u
SYMBOL nmosb 688 1152 R0
SYMATTR InstName M2
SYMATTR Value2 l=200n w=3u
SYMBOL current 736 1008 M0
WINDOW 123 0 0 Left 0
WINDOW 39 0 0 Left 0
SYMATTR InstName I1
SYMATTR Value 10n
SYMBOL AO_RMCM 272 1072 R0
SYMATTR InstName X1
SYMBOL voltage -576 992 R0
WINDOW 123 0 0 Left 0
WINDOW 39 0 0 Left 0
SYMATTR InstName V1
SYMATTR Value -5
TEXT -144 936 Left 0 !.model N NPN\n.model P PNP
TEXT 128 720 Left 2 ;.op
TEXT -496 728 Left 2 ;.dc VDD 2.5 5.5 0.1
TEXT 504 712 Left 2 !.dc temp -40 150 .1
TEXT -496 752 Left 2 ;.ac dec 50 0.1 1G
TEXT -496 824 Left 2 ;.tran 100u
TEXT 504 736 Left 2 !.step param VDD list 4.5 5 5.5
TEXT -480 648 Left 2 !.lib tsmc180nmcmos.lib
TEXT 504 672 Left 2 !.step param Rval 0 42k 10k
